cases/case57_tree.m
converged
function mpc = case57_tree

%% MATPOWER Case Format : Version 2
mpc.version = '2';

%%-----  Power Flow Data  -----%%
%% system MVA base
mpc.baseMVA = 1;

%% bus data
%	bus_i	type	Pd	Qd	Gs	Bs	area	Vm	Va	baseKV	zone	Vmax	Vmin
mpc.bus = [
	1	3	55	17	0	0	1	1.04	0	0	1	1.06	0.94;
	2	2	3	88	0	0	1	1.01	-0.359812537	0	1	1.06	0.94;
	3	2	41	21	0	0	1	0.985	-2.48199747	0	1	1.06	0.94;
	4	1	0	0	0	0	1	0.975317586	-3.41314083	0	1	1.06	0.94;
	5	1	13	4	0	0	1	0.961253	-4.30910479	0	1	1.06	0.94;
	6	2	75	2	0	0	1	0.98	-40.9898597	0	1	1.06	0.94;
	7	1	0	0	0	0	1	0.968558686	-36.2104888	0	1	1.06	0.94;
	8	2	150	22	0	0	1	1.005	-33.307439	0	1	1.06	0.94;
	9	2	121	26	0	0	1	0.98	-37.4583065	0	1	1.06	0.94;
	10	1	5	2	0	0	1	0.976326651	-36.1788428	0	1	1.06	0.94;
	11	1	0	0	0	0	1	0.959963331	-38.4385739	0	1	1.06	0.94;
	12	2	377	24	0	0	1	1.015	-32.3044423	0	1	1.06	0.94;
	13	1	18	2.3	0	0	1	1.00181726	-33.3664747	0	1	1.06	0.94;
	14	1	10.5	5.3	0	0	1	0.942551602	-6.74389517	0	1	1.06	0.94;
	15	1	22	5	0	0	1	0.960700583	-5.54242149	0	1	1.06	0.94;
	16	1	43	3	0	0	1	1.0109932	-4.75824177	0	1	1.06	0.94;
	17	1	42	8	0	0	1	0.980618957	-13.4600234	0	1	1.06	0.94;
	18	1	27.2	9.8	0	10	1	0.977163306	-11.7862401	0	1	1.06	0.94;
	19	1	3.3	0.6	0	0	1	0.937020635	-13.7251725	0	1	1.06	0.94;
	20	1	2.3	1	0	0	1	0.925263443	-14.1978234	0	1	1.06	0.94;
	21	1	0	0	0	0	1	0.87959584	-13.4403161	0	1	1.06	0.94;
	22	1	0	0	0	0	1	0.87959584	-13.4403161	0	1	1.06	0.94;
	23	1	6.3	2.1	0	0	1	0.878522146	-13.4959033	0	1	1.06	0.94;
	24	1	0	0	0	0	1	0.893338205	-43.1561948	0	1	1.06	0.94;
	25	1	6.3	3.2	0	5.9	1	0.780513655	-59.1639498	0	1	1.06	0.94;
	26	1	0	0	0	0	1	0.862527349	-42.5594219	0	1	1.06	0.94;
	27	1	9.3	0.5	0	0	1	0.926604384	-40.9053376	0	1	1.06	0.94;
	28	1	4.6	2.3	0	0	1	0.957672607	-39.7915296	0	1	1.06	0.94;
	29	1	17	2.6	0	0	1	0.981457993	-39.0703757	0	1	1.06	0.94;
	30	1	3.6	1.8	0	0	1	0.749066391	-60.4020057	0	1	1.06	0.94;
	31	1	5.8	2.9	0	0	1	0.701024645	-62.5161861	0	1	1.06	0.94;
	32	1	1.6	0.8	0	0	1	0.821097579	-19.1521149	0	1	1.06	0.94;
	33	1	3.8	1.9	0	0	1	0.818441447	-19.2052483	0	1	1.06	0.94;
	34	1	0	0	0	0	1	0.833485707	-14.9394099	0	1	1.06	0.94;
	35	1	6	3	0	0	1	0.839887006	-14.7313498	0	1	1.06	0.94;
	36	1	0	0	0	0	1	0.849764075	-14.4546638	0	1	1.06	0.94;
	37	1	0	0	0	0	1	0.856465401	-14.2681867	0	1	1.06	0.94;
	38	1	14	7	0	0	1	0.881681017	-13.3327981	0	1	1.06	0.94;
	39	1	0	0	0	0	1	0.853271818	-14.4118296	0	1	1.06	0.94;
	40	1	0	0	0	0	1	0.849764075	-14.4546638	0	1	1.06	0.94;
	41	1	6.3	3	0	0	1	0.928604292	-46.1780536	0	1	1.06	0.94;
	42	1	7.1	4.4	0	0	1	0.894696883	-47.2735283	0	1	1.06	0.94;
	43	1	2	1	0	0	1	0.979313166	-40.5510748	0	1	1.06	0.94;
	44	1	12	1.8	0	0	1	0.907416156	-12.094832	0	1	1.06	0.94;
	45	1	0	0	0	0	1	0.975237487	-8.83878771	0	1	1.06	0.94;
	46	1	0	0	0	0	1	1.03838777	-7.9027347	0	1	1.06	0.94;
	47	1	29.7	11.6	0	0	1	1.0238708	-8.84738258	0	1	1.06	0.94;
	48	1	0	0	0	0	1	0.881681017	-13.3327981	0	1	1.06	0.94;
	49	1	18	8.5	0	0	1	1.10421301	-34.9603934	0	1	1.06	0.94;
	50	1	21	10.5	0	0	1	0.984217984	-39.4444652	0	1	1.06	0.94;
	51	1	18	5.3	0	0	1	1.03775938	-37.6688996	0	1	1.06	0.94;
	52	1	4.9	2.2	0	0	1	0.92600218	-41.3652975	0	1	1.06	0.94;
	53	1	20	10	0	6.3	1	0.903682306	-42.4595262	0	1	1.06	0.94;
	54	1	4.1	1.4	0	0	1	1.02682512	-38.5257441	0	1	1.06	0.94;
	55	1	6.8	3.4	0	0	1	1.0368505	-38.1564735	0	1	1.06	0.94;
	56	1	7.6	2.2	0	0	1	0.865458904	-48.2858007	0	1	1.06	0.94;
	57	1	6.7	2	0	0	1	0.8312046	-21.6181421	0	1	1.06	0.94;
];

%% generator data
%	bus	Pg	Qg	Qmax	Qmin	Vg	mBase	status	Pmax	Pmin	Pc1	Pc2	Qc1min	Qc1max	Qc2min	Qc2max	ramp_agc	ramp_10	ramp_30	ramp_q	apf
mpc.gen = [
	1	498.12975	225.150753	200	-140	1.04	100	1	575.88	0	0	0	0	0	0	0	0	0	0	0	0;
	2	0	8.65131951	50	-17	1.01	100	1	100	0	0	0	0	0	0	0	0	0	0	0	0;
	3	40	21.6552337	60	-10	0.985	100	1	140	0	0	0	0	0	0	0	0	0	0	0	0;
	6	0	7.64462661	25	-8	0.98	100	1	100	0	0	0	0	0	0	0	0	0	0	0	0;
	8	450	90.9505956	200	-140	1.005	100	1	550	0	0	0	0	0	0	0	0	0	0	0	0;
	9	0	36.763612	9	-3	0.98	100	1	100	0	0	0	0	0	0	0	0	0	0	0	0;
	12	310	141.476157	155	-150	1.015	100	1	410	0	0	0	0	0	0	0	0	0	0	0	0;
];

%% branch data
%	fbus	tbus	r	x	b	rateA	rateB	rateC	ratio	angle	status	angmin	angmax	Pf	Qf	Pt	Qt
mpc.branch = [
	1	2	8.3e-05	0.00028	0	9900	0	0	0	0	1	-360	360	52.0384	96.0769	-51.1223	-92.9862;
	1	15	0.000178	0.00091	0	9900	0	0	0	0	1	-360	360	120.1756	72.2540	-116.9396	-55.7107;
	1	16	0.000454	0.00206	0	9900	0	0	0	0	1	-360	360	43.8253	6.7447	-43.0000	-3.0000;
	1	17	0.000238	0.00108	0	9900	0	0	0	0	1	-360	360	227.0905	33.0752	-215.5021	19.5109;
	2	3	0.000298	0.00085	0	9900	0	0	0	0	1	-360	360	48.1223	13.6375	-47.3914	-11.5530;
	3	4	0.000112	0.000366	0	9900	0	0	0	0	1	-360	360	46.3914	12.2082	-46.1258	-11.3401;
	4	5	0.000625	0.00132	0	9900	0	0	0	0	1	-360	360	13.1251	4.2643	-13.0000	-4.0000;
	4	18	0	0.0043	0	9900	0	0	0.978	0	1	-360	360	33.0007	7.0758	-33.0007	-2.1507;
	6	8	0.000339	0.00173	0	9900	0	0	0	0	1	-360	360	-75.0000	5.6446	76.9967	4.5453;
	7	8	0.000139	0.000712	0	9900	0	0	0	0	1	-360	360	-75.6906	-33.0412	76.7013	38.2180;
	7	29	0	0.000648	0	9900	0	0	0.967	0	1	-360	360	75.6906	33.0412	-75.6906	-28.6356;
	8	9	9.9e-05	0.000505	0	9900	0	0	0	0	1	-360	360	146.3020	26.1873	-144.1368	-15.1425;
	9	10	0.000369	0.001679	0	9900	0	0	0	0	1	-360	360	-11.6589	4.8485	11.7202	-4.5697;
	9	11	0.000258	0.000848	0	9900	0	0	0	0	1	-360	360	23.8649	16.0572	-23.6426	-15.3266;
	9	55	0	0.001205	0	9900	0	0	0.94	0	1	-360	360	10.9308	5.0005	-10.9308	-4.8403;
	10	12	0.000277	0.001262	0	9900	0	0	0	0	1	-360	360	-56.5089	-15.7211	57.5087	20.2760;
	10	51	0	0.000712	0	9900	0	0	0.93	0	1	-360	360	39.7887	18.2909	-39.7887	-17.0520;
	11	43	0	0.00153	0	9900	0	0	0.958	0	1	-360	360	23.6426	15.3266	-23.6426	-14.1170;
	12	13	0.000178	0.00058	0	9900	0	0	0	0	1	-360	360	36.2530	12.2451	-36.0000	-11.4207;
	12	17	0.000397	0.00179	0	9900	0	0	0	0	1	-360	360	-160.7616	84.9551	173.5021	-27.5109;
	13	49	0	0.00191	0	9900	0	0	0.895	0	1	-360	360	18.0000	9.1207	-18.0000	-8.5000;
	14	15	0.000171	0.000547	0	9900	0	0	0	0	1	-360	360	-40.4231	-18.2723	40.8018	19.4839;
	14	46	0	0.000735	0	9900	0	0	0.9	0	1	-360	360	29.9231	12.9723	-29.9231	-12.2595;
	15	45	0	0.001042	0	9900	0	0	0.955	0	1	-360	360	54.1378	31.2268	-54.1378	-27.2049;
	18	19	0.00461	0.00685	0	9900	0	0	0	0	1	-360	360	5.8007	1.8991	-5.6208	-1.6319;
	19	20	0.00283	0.00434	0	9900	0	0	0	0	1	-360	360	2.3208	1.0319	-2.3000	-1.0000;
	21	22	0.000736	0.00117	0	9900	0	0	0	0	1	-360	360	-0.0000	-0.0000	0.0000	0.0000;
	22	23	9.9e-05	0.000152	0	9900	0	0	0	0	1	-360	360	6.3057	2.1087	-6.3000	-2.1000;
	22	38	0.000192	0.000295	0	9900	0	0	0	0	1	-360	360	-6.3057	-2.1087	6.3166	2.1255;
	24	25	0	0.01182	0	9900	0	0	1	0	1	-360	360	16.2675	10.8145	-16.2675	-5.1628;
	24	26	0	0.000473	0	9900	0	0	1.043	0	1	-360	360	-16.2675	-10.8145	16.2675	11.0605;
	25	30	0.00135	0.00202	0	9900	0	0	0	0	1	-360	360	9.9675	5.5571	-9.6789	-5.1253;
	26	27	0.00165	0.00254	0	9900	0	0	0	0	1	-360	360	-16.2675	-11.0605	17.1258	12.3817;
	27	28	0.000618	0.000954	0	9900	0	0	0	0	1	-360	360	-26.4258	-12.8817	27.0479	13.8420;
	28	29	0.000418	0.000587	0	9900	0	0	0	0	1	-360	360	-31.6479	-16.1420	32.2231	16.9498;
	29	52	0.001442	0.00187	0	9900	0	0	0	0	1	-360	360	26.4675	9.0857	-25.2952	-7.5655;
	30	31	0.00326	0.00497	0	9900	0	0	0	0	1	-360	360	6.0789	3.3253	-5.8000	-2.9000;
	32	33	0.000392	0.00036	0	9900	0	0	0	0	1	-360	360	3.8106	1.9097	-3.8000	-1.9000;
	34	32	0	0.00953	0	9900	0	0	0.975	0	1	-360	360	5.4106	3.2273	-5.4106	-2.7097;
	34	35	0.00052	0.00078	0	9900	0	0	0	0	1	-360	360	-5.4106	-3.2273	5.4403	3.2718;
	35	36	0.00043	0.000537	0	9900	0	0	0	0	1	-360	360	-11.4403	-6.2718	11.5440	6.4014;
	36	37	0.00029	0.000366	0	9900	0	0	0	0	1	-360	360	-11.5440	-6.4014	11.6140	6.4897;
	36	40	0.0003	0.000466	0	9900	0	0	0	0	1	-360	360	0.0000	0.0000	0.0000	0.0000;
	37	38	0.000651	0.001009	0	9900	0	0	0	0	1	-360	360	-18.3316	-9.4765	18.7096	10.0623;
	37	39	0.000239	0.000379	0	9900	0	0	0	0	1	-360	360	6.7176	2.9868	-6.7000	-2.9588;
	38	44	0.000289	0.000585	0	9900	0	0	0	0	1	-360	360	-39.0262	-19.1878	39.7293	20.6110;
	38	48	0.000312	0.000482	0	9900	0	0	0	0	1	-360	360	0.0000	0.0000	-0.0000	-0.0000;
	39	57	0	0.01355	0	9900	0	0	0.98	0	1	-360	360	6.7000	2.9588	-6.7000	-2.0000;
	41	42	0.00207	0.00352	0	9900	0	0	0	0	1	-360	360	7.2804	4.7068	-7.1000	-4.4000;
	41	43	0	0.00412	0	9900	0	0	0	0	1	-360	360	-21.6426	-10.3656	21.6426	13.1170;
	56	41	0.00553	0.00549	0	9900	0	0	0	0	1	-360	360	-7.6000	-2.2000	8.0622	2.6588;
	44	45	0.000624	0.001242	0	9900	0	0	0	0	1	-360	360	-51.7293	-22.4110	54.1378	27.2049;
	46	47	0.00023	0.00068	0	9900	0	0	0	0	1	-360	360	29.9231	12.2595	-29.7000	-11.6000;
	50	51	0.001386	0.0022	0	9900	0	0	0	0	1	-360	360	-21.0000	-10.5000	21.7887	11.7520;
	52	53	0.000762	0.000984	0	9900	0	0	0	0	1	-360	360	20.3952	5.3655	-20.0000	-4.8552;
	54	55	0.001732	0.002265	0	9900	0	0	0	0	1	-360	360	-4.1000	-1.4000	4.1308	1.4403;
];

%%-----  OPF Data  -----%%
%% generator cost data
%	1	startup	shutdown	n	x1	y1	...	xn	yn
%	2	startup	shutdown	n	c(n-1)	...	c0
mpc.gencost = [
	2	0	0	3	0.0775795	20	0;
	2	0	0	3	0.01	40	0;
	2	0	0	3	0.25	20	0;
	2	0	0	3	0.01	40	0;
	2	0	0	3	0.0222222	20	0;
	2	0	0	3	0.01	40	0;
	2	0	0	3	0.0322581	20	0;
];
